LAMMPS (16 Mar 2018)
################################################
# Input file setup
################################################
units			real
boundary		p p p
atom_style		full
neigh_modify 	every 1 delay 0 check yes
variable		time_step 			 equal 1
variable		equilibrium_run_step equal 10000000 					# 10ns
variable		thermo_step 		 equal 10000000/100

variable		filename string cvff_20merGC.data

################################################
# Non bonded and bonded interactions setup
################################################
#pair_style 		lj/cut/coul/long 10
#kspace_style 	pppm 1.0e-4
pair_style 		lj/cut/coul/cut 10
bond_style 		harmonic
angle_style 	harmonic
dihedral_style 	harmonic
improper_style 	cvff

read_data		cvff_20merGC.data
  orthogonal box = (-100 -100 -100) to (100 100 100)
  reading atoms ...
  582 atoms
  scanning bonds ...
  scanning angles ...
  scanning dihedrals ...
  scanning impropers ...
  reading bonds ...
  601 bonds
  reading angles ...
  1120 angles
  reading dihedrals ...
  1677 dihedrals
  reading impropers ...
  20 impropers

################################################
# Minimization
################################################
min_style      	cg
minimize       	0.0 1.0e-8 10000 100000
  update every 1 steps, delay 0 steps, check yes
Step Temp E_pair E_mol TotEng Press
0            0 1.5274936e+08    8596.6157 1.5275796e+08    5237325.8
Loop time of 0.0617428 on 40 procs for 76 steps with 582 atoms

Minimization stats:
  Stopping criterion = linesearch alpha is zero
  Energy initial, next-to-last, final =
  Force two-norm initial, final = 1.11878e+09 68.8203
  Force max component initial, final = 1.70596e+08 9.26457
  Final line search alpha, max atom move = 1.48623e-12 1.37693e-11
  Iterations, force evaluations = 76 186

write_data		minimized.data

################################################
# NPT equilibrium
################################################
neigh_modify 	every 1 delay 10
velocity        all create 300 12345
fix				1 all npt temp 300 300 $(100.0*dt) iso 1 1 $(1000.0*dt)
fix				1 all npt temp 300 300 100 iso 1 1 $(1000.0*dt)
fix				1 all npt temp 300 300 100 iso 1 1 1000

################################################
# Dump setup
################################################
#丟進VMD用
dump            10 all dcd 100000 PHEMA100_pure_NPT.dcd
dump_modify     10 unwrap yes

thermo_style    custom step time temp pe ke etotal enthalpy press vol density epair evdwl ecoul elong etail emol ebond eangle edihed eimp

################################################
# Run
################################################
timestep        1
thermo			100000
run				10000000
Step Time Temp PotEng KinEng TotEng Enthalpy Press Volume Density E_pair E_vdwl E_coul E_long E_tail E_mol E_bond E_angle E_dihed E_impro
76            0          300    1625.7022    519.55519    2145.2574   -3148.3223   -45.371547      8000000 0.00085232659   -599.08808   -78.701768   -520.38632            0            0    2224.7903     865.4306    1178.9547    180.40507            0
Averages over the last 51 of 102 rows, steps 5100000 to 10000076:
Temp PotEng KinEng TotEng Enthalpy Press Volume Density E_pair E_vdwl E_coul E_long E_tail E_mol E_bond E_angle E_dihed E_impro
301.359 -557.302 521.908 -35.3936 38.5899 911.413 5611.81 1.21531 -1173.49 -357.917 -815.575 0 0 616.191 187.058 313.252 115.88 0
Loop time of 2391.13 on 40 procs for 10000000 steps with 582 atoms

write_data		cvff_20merGC.data_npt_300K.data
